[General]
sim-time-limit=250s
num-rngs = 1
seed-0-mt = 5
output-scalar-file-append = false
record-eventlog = false

*.visualizer.*.interfaceTableVisualizer.displayInterfaceTables = true

**.tcp.typename = "Tcp"
**.udp.typename = "Udp"

**.ppp.queue.packetCapacity = 10000

# tcp general settings
**.tcp.advertisedWindow = 65535                      # in bytes, corresponds with the maximal receiver buffer capacity (Note: normally, NIC queues should be at least this size)
**.tcp.delayedAcksEnabled = false                    # delayed ACK algorithm (RFC 1122) enabled/disabled
**.tcp.nagleEnabled = true                           # Nagle's algorithm (RFC 896) enabled/disabled
**.tcp.limitedTransmitEnabled = false                # Limited Transmit algorithm (RFC 3042) enabled/disabled (can be used for TCPReno/TCPTahoe/TCPNewReno/TCPNoCongestionControl)
**.tcp.increasedIWEnabled = false                    # Increased Initial Window (RFC 3390) enabled/disabled
**.tcp.sackSupport = false                           # Selective Acknowledgment (RFC 2018, 2883, 3517) support (header option) (SACK will be enabled for a connection if both endpoints support it)
**.tcp.windowScalingSupport = false                  # Window Scale (RFC 1323) support (header option) (WS will be enabled for a connection if both endpoints support it)
**.tcp.timestampSupport = false                      # Timestamps (RFC 1323) support (header option) (TS will be enabled for a connection if both endpoints support it)
**.tcp.mss = 1452                                    # Maximum Segment Size (RFC 793) (header option)
**.tcp.tcpAlgorithmClass = "TcpReno"                 # TCPReno/TCPTahoe/TCPNewReno/TCPNoCongestionControl/DumbTCP

**.tcp.*.*.vector-recording = true
**.tcp.*.rtt.result-recording-modes = +vector
**.tcp.*.*.result-recording-modes = -vector
**.host*.app*.*.vector-recording = true
**.ppp.*xPk*.vector-recording = true
**.vector-recording = false

*.configurator.optimizeRoutes = false
*.configurator.addDefaultRoutes = true
*.configurator.addSubnetRoutes = false
*.configurator.addStaticRoutes = false

*.configurator.dumpAddresses = false
*.configurator.dumpTopology = false
*.configurator.dumpLinks = false
*.configurator.dumpRoutes = true

[Config baselineTestNS_base]
description = "All four applications - base configuration"
sim-time-limit=400s

output-vector-file = "${resultdir}/${configname}/${configname}-${runnumber}.vec"
output-scalar-file = "${resultdir}/${configname}/${configname}-${runnumber}.sca"

**.crcMode = "computed"
*.host*.numApps = 1

# File download client
*.hostFDO[*].hasTcp = true
*.hostFDO[*].app[0].typename = "TcpFileDownloadApp"
*.hostFDO[*].app[0].localAddress = ""
*.hostFDO[*].app[0].localPort = -1 # port number to listen on
*.hostFDO[*].app[0].connectAddress = "serverFDO" # server address (may be symbolic)
*.hostFDO[*].app[0].connectPort = 1042 # port number to connect to
*.hostFDO[*].app[0].startTime = uniform(0.01s,1s) # time first session begins
*.hostFDO[*].app[0].stopTime = -1s # time of finishing sending, negative values mean forever
*.hostFDO[*].app[0].numRequestsPerSession = 1 # number of requests sent per session
*.hostFDO[*].app[0].requestLength = 800B # length of a request
*.hostFDO[*].app[0].replyLength = 2500KiB # length of a reply
*.hostFDO[*].app[0].thinkTime = 0.01s # time gap between requests
*.hostFDO[*].app[0].idleInterval = 1s # time gap between sessions
*.hostFDO[*].app[0].reconnectInterval = 1s # if connection breaks, waits this much before trying to reconnect
*.hostFDO[*].app[0].stopOperationExtraTime = -1s # extra time after lifecycle stop operation finished
*.hostFDO[*].app[0].stopOperationTimeout = 2s # timeout value for lifecycle stop operation

# File download server
*.serverFDO.hasTcp = true
*.serverFDO.numApps = 1
*.serverFDO.app[0].typename = "TcpGenericServerApp"
*.serverFDO.app[0].localAddress = "" # local address; may be left empty ("")
*.serverFDO.app[0].localPort = 1042 # localPort number to listen on
*.serverFDO.app[0].replyDelay = 0s #
*.serverFDO.app[0].stopOperationExtraTime = -1s # extra time after lifecycle stop operation finished
*.serverFDO.app[0].stopOperationTimeout  = 2s # timeout value for lifecycle stop operation

# Video client
**.hostVID[*].hasTcp = true
**.hostVID[*].app[0].typename = "TCPVideoStreamCliAppV2"
**.hostVID[*].app[0].localAddress = "" # may be left empty ("")
**.hostVID[*].app[0].localPort = -1 # port number to listen on
**.hostVID[*].app[0].connectAddress = "serverVID" # server address (may be symbolic)
**.hostVID[*].app[0].connectPort = 1042 # port number to connect to
**.hostVID[*].app[0].dataTransferMode = "object"
**.hostVID[*].app[0].startTime = uniform(0.01s,1s) # time first session begins
**.hostVID[*].app[0].stopTime = -1s # time of finish sending, 0 means infinity
**.hostVID[*].app[0].idleInterval = 1s
**.hostVID[*].app[0].requestLength = 200B # length of a request
**.hostVID[*].app[0].reconnectInterval = 1s # if connection breaks, waits this much before trying to reconnect
**.hostVID[*].app[0].numRequestsPerSession = 1 # number of requests sent per session
**.hostVID[*].app[0].thinkTime = 1000s # time gap between requests
**.hostVID[*].app[0].video_resolution = "360 480 720 1080" # how many kbits are required for 1 second of video for each representation (quality levels)
**.hostVID[*].app[0].manifest_size = 100000
**.hostVID[*].app[0].video_buffer_max_length = 40s # buffer max length in seconds
**.hostVID[*].app[0].video_duration = int(uniform(240s,320s)) # video length in seconds
**.hostVID[*].app[0].segment_length = 5s # video segment length in seconds
**.hostVID[*].app[0].useFlexibleBitrate = "flexible"

# Video server
*.serverVID.hasTcp = true
*.serverVID.numApps = 1
*.serverVID.app[0].typename = "TcpGenericServerApp"
*.serverVID.app[0].localAddress = "" # local address; may be left empty ("")
*.serverVID.app[0].localPort = 1042 # localPort number to listen on
*.serverVID.app[0].replyDelay = 0s #
*.serverVID.app[0].stopOperationExtraTime = -1s # extra time after lifecycle stop operation finished
*.serverVID.app[0].stopOperationTimeout  = 2s # timeout value for lifecycle stop operation

# Live Video client
**.hostLVD[*].hasTcp = true
**.hostLVD[*].app[0].typename = "TCPLiveVideoStreamCliApp"
**.hostLVD[*].app[0].localAddress = "" # may be left empty ("")
**.hostLVD[*].app[0].localPort = -1 # port number to listen on
**.hostLVD[*].app[0].connectAddress = "serverLVD" # server address (may be symbolic)
**.hostLVD[*].app[0].connectPort = 1043 # port number to connect to
**.hostLVD[*].app[0].dataTransferMode = "object"
**.hostLVD[*].app[0].startTime = uniform(0.01s,1s) # time first session begins
**.hostLVD[*].app[0].stopTime = -1s # time of finish sending, 0 means infinity
**.hostLVD[*].app[0].idleInterval = 1s
**.hostLVD[*].app[0].requestLength = 200B # length of a request
**.hostLVD[*].app[0].reconnectInterval = 1s # if connection breaks, waits this much before trying to reconnect
**.hostLVD[*].app[0].numRequestsPerSession = 1 # number of requests sent per session
**.hostLVD[*].app[0].thinkTime = 1s # time gap between requests
**.hostLVD[*].app[0].video_resolution = "240 360 480 720 1080" # how many kbits are required for 1 second of video for each representation (quality levels)
**.hostLVD[*].app[0].manifest_size = 100000
**.hostLVD[*].app[0].video_buffer_max_length = 6s # buffer max length in seconds
**.hostLVD[*].app[0].video_duration = int(uniform(40s,70s)) # video length in seconds
**.hostLVD[*].app[0].segment_length = 1s # video segment length in seconds
**.hostLVD[*].app[0].useFlexibleBitrate = "flexible"
**.hostLVD[*].app[0].video_type = "live"
**.hostLVD[*].app[0].delay_threshold = 4
**.hostLVD[*].app[0].speedup_rate = 1.05

# Live Video server
*.serverLVD.hasTcp = true
*.serverLVD.numApps = 1
*.serverLVD.app[0].typename = "TcpGenericServerApp"
*.serverLVD.app[0].localAddress = "" # local address; may be left empty ("")
*.serverLVD.app[0].localPort = 1043 # localPort number to listen on
*.serverLVD.app[0].replyDelay = 0s #
*.serverLVD.app[0].stopOperationExtraTime = -1s # extra time after lifecycle stop operation finished
*.serverLVD.app[0].stopOperationTimeout  = 2s # timeout value for lifecycle stop operation

# Remote Shell Client
**.hostSSH[*].hasTcp = true
**.hostSSH[*].app[0].typename = "TcpSimpleSshAppV2"
**.hostSSH[*].app[0].localAddress = "" # local address or empty ("")
**.hostSSH[*].app[0].localPort = -1 # local port number
**.hostSSH[*].app[0].connectAddress = "serverSSH" # server address (may be symbolic)
**.hostSSH[*].app[0].connectPort = 22  # port number to connect to
**.hostSSH[*].app[0].startTime = uniform(0.01s,1s) # time first session begins
**.hostSSH[*].app[0].stopTime = -1s # time of finishing sending, negative values mean forever
**.hostSSH[*].app[0].numCommands = 1 # user types this many commands in a session
**.hostSSH[*].app[0].commandLength = 10B # commands are this many characters (plus Enter)
**.hostSSH[*].app[0].keyPressDelay = 0.05s # delay between keypresses
**.hostSSH[*].app[0].commandOutputLength = 500B # commands produce this much output
**.hostSSH[*].app[0].thinkTime = 1s # user waits this much before starting to type new command
**.hostSSH[*].app[0].idleInterval = 1s # time gap between sessions
**.hostSSH[*].app[0].reconnectInterval = 1s # if connection breaks, user waits this much before trying to reconnect
**.hostSSH[*].app[0].stopOperationExtraTime = -1s # extra time after lifecycle stop operation finished
**.hostSSH[*].app[0].stopOperationTimeout = 2s # timeout value for lifecycle stop operation

# SSH server
*.serverSSH.hasTcp = true
*.serverSSH.numApps = 1
*.serverSSH.app[*].typename = "TcpGenericServerApp"
*.serverSSH.app[*].localAddress = "" # local address; may be left empty ("")
*.serverSSH.app[*].localPort = 22 # localPort number to listen on
*.serverSSH.app[*].replyDelay = 0s #
*.serverSSH.app[*].stopOperationExtraTime = -1s # extra time after lifecycle stop operation finished
*.serverSSH.app[*].stopOperationTimeout  = 2s # timeout value for lifecycle stop operation

# VoIP receiver
**.hostVIP[*].hasUdp = true
**.hostVIP[*].app[0].typename = "SimpleVoipReceiver"
**.hostVIP[*].app[0].localPort = 2000
**.hostVIP[*].app[0].emodelIe = 5 # Equipment impairment factor
**.hostVIP[*].app[0].emodelBpl = 10 # Packet-loss robustness factor
**.hostVIP[*].app[0].emodelA = 5 # Advantage factor
**.hostVIP[*].app[0].emodelRo = 93.2 # Basic signal-to-noise ratio
**.hostVIP[*].app[0].playoutDelay = 10ms # initial delay for beginning playout after receiving the first packet
**.hostVIP[*].app[0].adaptivePlayoutDelay = false # if true, adjust playoutDelay after each talkspurt
**.hostVIP[*].app[0].bufferSpace = 20 # buffer size in packets
**.hostVIP[*].app[0].mosSpareTime = 1s # spare time before calculating MOS (after calculated playout time of last packet)

# VoIP sender
**.serverVIP.hasUdp = true
**.serverVIP.numApps = nVIP
**.serverVIP.app[*].typename = "SimpleVoipSender"
**.serverVIP.app[*].localPort = -1
**.serverVIP.app[*].destPort = 2000
**.serverVIP.app[*].destAddress = "hostVIP[" + string(index()) + "]"
**.serverVIP.app[*].talkPacketSize = 40B # size of talk packets in bytes
**.serverVIP.app[*].talkspurtDuration = weibull(1.423s, 0.824s)
**.serverVIP.app[*].silenceDuration = weibull(0.899s, 1.089s)
**.serverVIP.app[*].packetizationInterval = 1ms # interval between sending voice packets
**.serverVIP.app[*].startTime = uniform(0.01s,1s) # time of start sending
**.serverVIP.app[*].stopTime = -1s # time of end of sending, -1 means forever


#############################################################################################################
#############################################################################################################
##																										   ##
##																										   ##
##        Configurations with 2 slices - one for delay and one for bandwidth sensitive applications        ##
##																										   ##
##																										   ##
#############################################################################################################
#############################################################################################################


# Base configs for 2 slices with simple two links between routers
[Config baselineTestNS_2sli_LVD-DES_base]
description = "Simple two slices base"
extends = baselineTestNS_base
network = baselineTestNS_2sli

# Links for "Network Slicing" configuration - network resources allocated to slices
*.configurator.config = xmldoc("configs/routing_2sli/routerConfigNS_2sli_LVD-DES.xml")

[Config baselineTestNS_2sli_LVD-BWS_base]
description = "Simple two slices base"
extends = baselineTestNS_base
network = baselineTestNS_2sli

# Links for "Network Slicing" configuration - network resources allocated to slices
*.configurator.config = xmldoc("configs/routing_2sli/routerConfigNS_2sli_LVD-BWS.xml")



# Base configs for 2 slices with two links between routers and an additional singular link
[Config baselineTestNS_2sliSingle_LVD-DES_base]
description = "Extended two slices base"
extends = baselineTestNS_base
network = baselineTestNS_2sliSingle

# Links for "Network Slicing" configuration - network resources allocated to slices
*.configurator.config = xmldoc("configs/routing_2sli/routerConfigNS_2sliSingle_LVD-DES.xml")

[Config baselineTestNS_2sliSingle_LVD-BWS_base]
description = "Extended two slices base"
extends = baselineTestNS_base
network = baselineTestNS_2sliSingle

# Links for "Network Slicing" configuration - network resources allocated to slices
*.configurator.config = xmldoc("configs/routing_2sli/routerConfigNS_2sliSingle_LVD-BWS.xml")



# Base configs for 2 slices with two links between routers, an additional single link and again two links
[Config baselineTestNS_2sliSingle2sli_LVD-DES_base]
description = "Extended two slices base"
extends = baselineTestNS_base
network = baselineTestNS_2sliSingle2sli

# Links for "Network Slicing" configuration - network resources allocated to slices
*.configurator.config = xmldoc("configs/routing_2sli/routerConfigNS_2sliSingle2sli_LVD-DES.xml")

[Config baselineTestNS_2sliSingle2sli_LVD-BWS_base]
description = "Extended two slices base"
extends = baselineTestNS_base
network = baselineTestNS_2sliSingle2sli

# Links for "Network Slicing" configuration - network resources allocated to slices
*.configurator.config = xmldoc("configs/routing_2sli/routerConfigNS_2sliSingle2sli_LVD-BWS.xml")



# Base configs for 2 slices where the up and downlink routes are separated and each has 2 links followed by a singular link
[Config baselineTestNS_2sliDouble_LVD-DES_base]
description = "Extended two slices base"
extends = baselineTestNS_base
network = baselineTestNS_2sliDouble

# Links for "Network Slicing" configuration - network resources allocated to slices
*.configurator.config = xmldoc("configs/routing_2sli/routerConfigNS_2sliDouble_LVD-DES.xml")

[Config baselineTestNS_2sliDouble_LVD-BWS_base]
description = "Extended two slices base"
extends = baselineTestNS_base
network = baselineTestNS_2sliDouble

# Links for "Network Slicing" configuration - network resources allocated to slices
*.configurator.config = xmldoc("configs/routing_2sli/routerConfigNS_2sliDouble_LVD-BWS.xml")



###########################################################################
###########################################################################
##																		 ##
##																		 ##
##        Configurations with 5 slices - one per application type        ##
##																		 ##
##																		 ##
###########################################################################
###########################################################################


# Base configs for 5 slices with simple two links between routers
[Config baselineTestNS_5sli_base]
description = "Simple five slices base"
extends = baselineTestNS_base
network = baselineTestNS_5sli

# Links for "Network Slicing" configuration - network resources allocated to slices
*.configurator.config = xmldoc("configs/routing_5sli/routerConfigNS_5sli.xml")


[Config baselineTestNS_5sliSingle_base]
description = "Simple five slices base"
extends = baselineTestNS_base
network = baselineTestNS_5sliSingle

# Links for "Network Slicing" configuration - network resources allocated to slices
*.configurator.config = xmldoc("configs/routing_5sli/routerConfigNS_5sliSingle.xml")


[Config baselineTestNS_5sliSingle5sli_base]
description = "Simple five slices base"
extends = baselineTestNS_base
network = baselineTestNS_5sliSingle5sli

# Links for "Network Slicing" configuration - network resources allocated to slices
*.configurator.config = xmldoc("configs/routing_5sli/routerConfigNS_5sliSingle5sli.xml")


[Config baselineTestNS_5sliDouble_base]
description = "Simple five slices base"
extends = baselineTestNS_base
network = baselineTestNS_5sliDouble

# Links for "Network Slicing" configuration - network resources allocated to slices
*.configurator.config = xmldoc("configs/routing_5sli/routerConfigNS_5sliDouble.xml")


[Config optimizationAlgoFairness1_5sli_0alpha_SSH100VIP75VID20LVD5FDO50_sSSH3sVIP44sVID14sLVD2sFDO37_fairness_max]
description = "Automatically generated config"
extends = baselineTestNS_5sli_base

*.nSSH = 100
*.nVIP = 75
*.nVID = 20
*.nLVD = 5
*.nFDO = 50

**.connSSH.datarate = 3Mbps
**.connVIP.datarate = 44Mbps
**.connVID.datarate = 14Mbps
**.connLVD.datarate = 2Mbps
**.connFDO.datarate = 37Mbps


[Config optimizationAlgoFairness1_5sli_5alpha_SSH100VIP20VID75LVD5FDO50_sSSH1sVIP12sVID51sLVD6sFDO30_fairness_max]
description = "Automatically generated config"
extends = baselineTestNS_5sli_base

*.nSSH = 100
*.nVIP = 20
*.nVID = 75
*.nLVD = 5
*.nFDO = 50

**.connSSH.datarate = 1Mbps
**.connVIP.datarate = 12Mbps
**.connVID.datarate = 51Mbps
**.connLVD.datarate = 6Mbps
**.connFDO.datarate = 30Mbps


[Config optimizationAlgoFairness1_5sli_10alpha_SSH100VIP20VID75LVD5FDO50_sSSH1sVIP12sVID51sLVD6sFDO30_fairness_max]
description = "Automatically generated config"
extends = baselineTestNS_5sli_base

*.nSSH = 100
*.nVIP = 20
*.nVID = 75
*.nLVD = 5
*.nFDO = 50

**.connSSH.datarate = 1Mbps
**.connVIP.datarate = 12Mbps
**.connVID.datarate = 51Mbps
**.connLVD.datarate = 6Mbps
**.connFDO.datarate = 30Mbps


[Config optimizationAlgoFairness1_5sli_0alpha_SSH50VIP75VID100LVD5FDO20_sSSH7sVIP45sVID20sLVD7sFDO21_fairness_min]
description = "Automatically generated config"
extends = baselineTestNS_5sli_base

*.nSSH = 50
*.nVIP = 75
*.nVID = 100
*.nLVD = 5
*.nFDO = 20

**.connSSH.datarate = 7Mbps
**.connVIP.datarate = 45Mbps
**.connVID.datarate = 20Mbps
**.connLVD.datarate = 7Mbps
**.connFDO.datarate = 21Mbps


[Config optimizationAlgoFairness1_5sli_5alpha_SSH20VIP100VID75LVD5FDO50_sSSH1sVIP58sVID37sLVD3sFDO1_fairness_min]
description = "Automatically generated config"
extends = baselineTestNS_5sli_base

*.nSSH = 20
*.nVIP = 100
*.nVID = 75
*.nLVD = 5
*.nFDO = 50

**.connSSH.datarate = 1Mbps
**.connVIP.datarate = 58Mbps
**.connVID.datarate = 37Mbps
**.connLVD.datarate = 3Mbps
**.connFDO.datarate = 1Mbps


[Config optimizationAlgoFairness1_5sli_10alpha_SSH50VIP100VID5LVD20FDO75_sSSH1sVIP36sVID20sLVD20sFDO23_fairness_min]
description = "Automatically generated config"
extends = baselineTestNS_5sli_base

*.nSSH = 50
*.nVIP = 100
*.nVID = 5
*.nLVD = 20
*.nFDO = 75

**.connSSH.datarate = 1Mbps
**.connVIP.datarate = 36Mbps
**.connVID.datarate = 20Mbps
**.connLVD.datarate = 20Mbps
**.connFDO.datarate = 23Mbps


[Config optimizationAlgoFairness1_5sli_0alpha_SSH100VIP75VID20LVD5FDO50_sSSH3sVIP44sVID14sLVD2sFDO37_mean_max]
description = "Automatically generated config"
extends = baselineTestNS_5sli_base

*.nSSH = 100
*.nVIP = 75
*.nVID = 20
*.nLVD = 5
*.nFDO = 50

**.connSSH.datarate = 3Mbps
**.connVIP.datarate = 44Mbps
**.connVID.datarate = 14Mbps
**.connLVD.datarate = 2Mbps
**.connFDO.datarate = 37Mbps


[Config optimizationAlgoFairness1_5sli_5alpha_SSH100VIP75VID50LVD5FDO20_sSSH2sVIP44sVID34sLVD6sFDO14_mean_max]
description = "Automatically generated config"
extends = baselineTestNS_5sli_base

*.nSSH = 100
*.nVIP = 75
*.nVID = 50
*.nLVD = 5
*.nFDO = 20

**.connSSH.datarate = 2Mbps
**.connVIP.datarate = 44Mbps
**.connVID.datarate = 34Mbps
**.connLVD.datarate = 6Mbps
**.connFDO.datarate = 14Mbps


[Config optimizationAlgoFairness1_5sli_10alpha_SSH100VIP75VID50LVD5FDO20_sSSH1sVIP44sVID34sLVD6sFDO15_mean_max]
description = "Automatically generated config"
extends = baselineTestNS_5sli_base

*.nSSH = 100
*.nVIP = 75
*.nVID = 50
*.nLVD = 5
*.nFDO = 20

**.connSSH.datarate = 1Mbps
**.connVIP.datarate = 44Mbps
**.connVID.datarate = 34Mbps
**.connLVD.datarate = 6Mbps
**.connFDO.datarate = 15Mbps


[Config optimizationAlgoFairness1_5sli_0alpha_SSH5VIP100VID50LVD75FDO20_sSSH1sVIP1sVID50sLVD22sFDO26_mean_min]
description = "Automatically generated config"
extends = baselineTestNS_5sli_base

*.nSSH = 5
*.nVIP = 100
*.nVID = 50
*.nLVD = 75
*.nFDO = 20

**.connSSH.datarate = 1Mbps
**.connVIP.datarate = 1Mbps
**.connVID.datarate = 50Mbps
**.connLVD.datarate = 22Mbps
**.connFDO.datarate = 26Mbps


[Config optimizationAlgoFairness1_5sli_5alpha_SSH5VIP100VID75LVD20FDO50_sSSH25sVIP26sVID32sLVD6sFDO11_mean_min]
description = "Automatically generated config"
extends = baselineTestNS_5sli_base

*.nSSH = 5
*.nVIP = 100
*.nVID = 75
*.nLVD = 20
*.nFDO = 50

**.connSSH.datarate = 25Mbps
**.connVIP.datarate = 26Mbps
**.connVID.datarate = 32Mbps
**.connLVD.datarate = 6Mbps
**.connFDO.datarate = 11Mbps


[Config optimizationAlgoFairness1_5sli_10alpha_SSH5VIP75VID50LVD100FDO20_sSSH15sVIP42sVID18sLVD22sFDO3_mean_min]
description = "Automatically generated config"
extends = baselineTestNS_5sli_base

*.nSSH = 5
*.nVIP = 75
*.nVID = 50
*.nLVD = 100
*.nFDO = 20

**.connSSH.datarate = 15Mbps
**.connVIP.datarate = 42Mbps
**.connVID.datarate = 18Mbps
**.connLVD.datarate = 22Mbps
**.connFDO.datarate = 3Mbps


[Config optimizationAlgoFairness1_5sli_0alpha_SSH100VIP20VID50LVD5FDO75_sSSH4sVIP12sVID35sLVD6sFDO43_min_max]
description = "Automatically generated config"
extends = baselineTestNS_5sli_base

*.nSSH = 100
*.nVIP = 20
*.nVID = 50
*.nLVD = 5
*.nFDO = 75

**.connSSH.datarate = 4Mbps
**.connVIP.datarate = 12Mbps
**.connVID.datarate = 35Mbps
**.connLVD.datarate = 6Mbps
**.connFDO.datarate = 43Mbps


[Config optimizationAlgoFairness1_5sli_5alpha_SSH100VIP50VID20LVD5FDO75_sSSH1sVIP29sVID15sLVD6sFDO49_min_max]
description = "Automatically generated config"
extends = baselineTestNS_5sli_base

*.nSSH = 100
*.nVIP = 50
*.nVID = 20
*.nLVD = 5
*.nFDO = 75

**.connSSH.datarate = 1Mbps
**.connVIP.datarate = 29Mbps
**.connVID.datarate = 15Mbps
**.connLVD.datarate = 6Mbps
**.connFDO.datarate = 49Mbps


[Config optimizationAlgoFairness1_5sli_10alpha_SSH100VIP50VID20LVD5FDO75_sSSH1sVIP29sVID15sLVD6sFDO49_min_max]
description = "Automatically generated config"
extends = baselineTestNS_5sli_base

*.nSSH = 100
*.nVIP = 50
*.nVID = 20
*.nLVD = 5
*.nFDO = 75

**.connSSH.datarate = 1Mbps
**.connVIP.datarate = 29Mbps
**.connVID.datarate = 15Mbps
**.connLVD.datarate = 6Mbps
**.connFDO.datarate = 49Mbps


[Config optimizationAlgoFairness1_5sli_0alpha_SSH5VIP75VID100LVD20FDO50_sSSH1sVIP44sVID48sLVD6sFDO1_min_min]
description = "Automatically generated config"
extends = baselineTestNS_5sli_base

*.nSSH = 5
*.nVIP = 75
*.nVID = 100
*.nLVD = 20
*.nFDO = 50

**.connSSH.datarate = 1Mbps
**.connVIP.datarate = 44Mbps
**.connVID.datarate = 48Mbps
**.connLVD.datarate = 6Mbps
**.connFDO.datarate = 1Mbps


[Config optimizationAlgoFairness1_5sli_5alpha_SSH20VIP100VID75LVD5FDO50_sSSH1sVIP58sVID37sLVD3sFDO1_min_min]
description = "Automatically generated config"
extends = baselineTestNS_5sli_base

*.nSSH = 20
*.nVIP = 100
*.nVID = 75
*.nLVD = 5
*.nFDO = 50

**.connSSH.datarate = 1Mbps
**.connVIP.datarate = 58Mbps
**.connVID.datarate = 37Mbps
**.connLVD.datarate = 3Mbps
**.connFDO.datarate = 1Mbps


[Config optimizationAlgoFairness1_5sli_10alpha_SSH5VIP50VID75LVD100FDO20_sSSH18sVIP28sVID29sLVD22sFDO3_min_min]
description = "Automatically generated config"
extends = baselineTestNS_5sli_base

*.nSSH = 5
*.nVIP = 50
*.nVID = 75
*.nLVD = 100
*.nFDO = 20

**.connSSH.datarate = 18Mbps
**.connVIP.datarate = 28Mbps
**.connVID.datarate = 29Mbps
**.connLVD.datarate = 22Mbps
**.connFDO.datarate = 3Mbps



[Config optimizationAlgoFairness1_2sli_LVD-BWS_0alpha_SSH100VIP75VID20LVD5FDO50_sDES46sBWS54_ndf_ndf]
description = "Automatically generated config"
extends = baselineTestNS_2sli_LVD-BWS_base

*.nSSH = 100
*.nVIP = 75
*.nVID = 20
*.nLVD = 5
*.nFDO = 50

**.connDES.datarate = 46Mbps
**.connBWS.datarate = 54Mbps


[Config optimizationAlgoFairness1_2sli_LVD-BWS_5alpha_SSH100VIP20VID75LVD5FDO50_sDES14sBWS86_ndf_ndf]
description = "Automatically generated config"
extends = baselineTestNS_2sli_LVD-BWS_base

*.nSSH = 100
*.nVIP = 20
*.nVID = 75
*.nLVD = 5
*.nFDO = 50

**.connDES.datarate = 14Mbps
**.connBWS.datarate = 86Mbps


[Config optimizationAlgoFairness1_2sli_LVD-BWS_10alpha_SSH100VIP20VID75LVD5FDO50_sDES14sBWS86_ndf_ndf]
description = "Automatically generated config"
extends = baselineTestNS_2sli_LVD-BWS_base

*.nSSH = 100
*.nVIP = 20
*.nVID = 75
*.nLVD = 5
*.nFDO = 50

**.connDES.datarate = 14Mbps
**.connBWS.datarate = 86Mbps


[Config optimizationAlgoFairness1_2sli_LVD-BWS_0alpha_SSH50VIP75VID100LVD5FDO20_sDES46sBWS54_ndf_ndf]
description = "Automatically generated config"
extends = baselineTestNS_2sli_LVD-BWS_base

*.nSSH = 50
*.nVIP = 75
*.nVID = 100
*.nLVD = 5
*.nFDO = 20

**.connDES.datarate = 46Mbps
**.connBWS.datarate = 54Mbps


[Config optimizationAlgoFairness1_2sli_LVD-BWS_5alpha_SSH20VIP100VID75LVD5FDO50_sDES58sBWS42_ndf_ndf]
description = "Automatically generated config"
extends = baselineTestNS_2sli_LVD-BWS_base

*.nSSH = 20
*.nVIP = 100
*.nVID = 75
*.nLVD = 5
*.nFDO = 50

**.connDES.datarate = 58Mbps
**.connBWS.datarate = 42Mbps


[Config optimizationAlgoFairness1_2sli_LVD-BWS_10alpha_SSH50VIP100VID5LVD20FDO75_sDES59sBWS41_ndf_ndf]
description = "Automatically generated config"
extends = baselineTestNS_2sli_LVD-BWS_base

*.nSSH = 50
*.nVIP = 100
*.nVID = 5
*.nLVD = 20
*.nFDO = 75

**.connDES.datarate = 59Mbps
**.connBWS.datarate = 41Mbps


[Config optimizationAlgoFairness1_2sli_LVD-BWS_0alpha_SSH100VIP20VID50LVD5FDO75_sDES15sBWS85_ndf_ndf]
description = "Automatically generated config"
extends = baselineTestNS_2sli_LVD-BWS_base

*.nSSH = 100
*.nVIP = 20
*.nVID = 50
*.nLVD = 5
*.nFDO = 75

**.connDES.datarate = 15Mbps
**.connBWS.datarate = 85Mbps


[Config optimizationAlgoFairness1_2sli_LVD-BWS_5alpha_SSH100VIP50VID20LVD5FDO75_sDES31sBWS69_ndf_ndf]
description = "Automatically generated config"
extends = baselineTestNS_2sli_LVD-BWS_base

*.nSSH = 100
*.nVIP = 50
*.nVID = 20
*.nLVD = 5
*.nFDO = 75

**.connDES.datarate = 31Mbps
**.connBWS.datarate = 69Mbps


[Config optimizationAlgoFairness1_2sli_LVD-BWS_10alpha_SSH100VIP50VID20LVD5FDO75_sDES31sBWS69_ndf_ndf]
description = "Automatically generated config"
extends = baselineTestNS_2sli_LVD-BWS_base

*.nSSH = 100
*.nVIP = 50
*.nVID = 20
*.nLVD = 5
*.nFDO = 75

**.connDES.datarate = 31Mbps
**.connBWS.datarate = 69Mbps


[Config optimizationAlgoFairness1_2sli_LVD-BWS_0alpha_SSH5VIP75VID100LVD20FDO50_sDES47sBWS53_ndf_ndf]
description = "Automatically generated config"
extends = baselineTestNS_2sli_LVD-BWS_base

*.nSSH = 5
*.nVIP = 75
*.nVID = 100
*.nLVD = 20
*.nFDO = 50

**.connDES.datarate = 47Mbps
**.connBWS.datarate = 53Mbps


[Config optimizationAlgoFairness1_2sli_LVD-BWS_5alpha_SSH20VIP100VID75LVD5FDO50_sDES58sBWS42_ndf_ndf2]
description = "Automatically generated config"
extends = baselineTestNS_2sli_LVD-BWS_base

*.nSSH = 20
*.nVIP = 100
*.nVID = 75
*.nLVD = 5
*.nFDO = 50

**.connDES.datarate = 58Mbps
**.connBWS.datarate = 42Mbps


[Config optimizationAlgoFairness1_2sli_LVD-BWS_10alpha_SSH5VIP50VID75LVD100FDO20_sDES18sBWS82_ndf_ndf]
description = "Automatically generated config"
extends = baselineTestNS_2sli_LVD-BWS_base

*.nSSH = 5
*.nVIP = 50
*.nVID = 75
*.nLVD = 100
*.nFDO = 20

**.connDES.datarate = 18Mbps
**.connBWS.datarate = 82Mbps


[Config optimizationAlgoFairness1_2sli_LVD-BWS_0alpha_SSH100VIP75VID20LVD5FDO50_sDES46sBWS54_ndf_ndf2]
description = "Automatically generated config"
extends = baselineTestNS_2sli_LVD-BWS_base

*.nSSH = 100
*.nVIP = 75
*.nVID = 20
*.nLVD = 5
*.nFDO = 50

**.connDES.datarate = 46Mbps
**.connBWS.datarate = 54Mbps


[Config optimizationAlgoFairness1_2sli_LVD-BWS_5alpha_SSH100VIP75VID50LVD5FDO20_sDES46sBWS54_ndf_ndf]
description = "Automatically generated config"
extends = baselineTestNS_2sli_LVD-BWS_base

*.nSSH = 100
*.nVIP = 75
*.nVID = 50
*.nLVD = 5
*.nFDO = 20

**.connDES.datarate = 46Mbps
**.connBWS.datarate = 54Mbps


[Config optimizationAlgoFairness1_2sli_LVD-BWS_10alpha_SSH100VIP75VID50LVD5FDO20_sDES46sBWS54_ndf_ndf]
description = "Automatically generated config"
extends = baselineTestNS_2sli_LVD-BWS_base

*.nSSH = 100
*.nVIP = 75
*.nVID = 50
*.nLVD = 5
*.nFDO = 20

**.connDES.datarate = 46Mbps
**.connBWS.datarate = 54Mbps


[Config optimizationAlgoFairness1_2sli_LVD-BWS_0alpha_SSH5VIP100VID50LVD75FDO20_sDES60sBWS40_ndf_ndf]
description = "Automatically generated config"
extends = baselineTestNS_2sli_LVD-BWS_base

*.nSSH = 5
*.nVIP = 100
*.nVID = 50
*.nLVD = 75
*.nFDO = 20

**.connDES.datarate = 60Mbps
**.connBWS.datarate = 40Mbps


[Config optimizationAlgoFairness1_2sli_LVD-BWS_5alpha_SSH5VIP100VID75LVD20FDO50_sDES57sBWS43_ndf_ndf]
description = "Automatically generated config"
extends = baselineTestNS_2sli_LVD-BWS_base

*.nSSH = 5
*.nVIP = 100
*.nVID = 75
*.nLVD = 20
*.nFDO = 50

**.connDES.datarate = 57Mbps
**.connBWS.datarate = 43Mbps


[Config optimizationAlgoFairness1_2sli_LVD-BWS_10alpha_SSH5VIP75VID50LVD100FDO20_sDES43sBWS57_ndf_ndf]
description = "Automatically generated config"
extends = baselineTestNS_2sli_LVD-BWS_base

*.nSSH = 5
*.nVIP = 75
*.nVID = 50
*.nLVD = 100
*.nFDO = 20

**.connDES.datarate = 43Mbps